*Heading
** Job name: test4-8ply Model name: Model-2
** Generated by: Abaqus/CAE 6.13-1
*Preprint, echo=NO, model=NO, history=NO, contact=NO
**
** PARTS
**
*PARAMETER
theta1=0
theta2=0 
theta3=0 
theta4=0 
*Part, name=Part-1
*Node
      1,   29.5100002,           0.,           0.
      2,   29.5100002,          25.,           0.
      3,           0.,          25.,           0.
      4,           0.,           0.,           0.
      5,   69.7900009,           0.,           0.
      6,   69.7900009,          25.,           0.
      7,   170.490005,          25.,           0.
      8,   170.490005,           0.,           0.
      9,         200.,           0.,           0.
     10,         200.,          25.,           0.
     11,   130.210007,           0.,           0.
     12,   130.210007,          25.,           0.
     13,   29.5100002,   1.92307687,           0.
     14,   29.5100002,   3.84615374,           0.
     15,   29.5100002,   5.76923084,           0.
     16,   29.5100002,   7.69230747,           0.
     17,   29.5100002,   9.61538506,           0.
     18,   29.5100002,   11.5384617,           0.
     19,   29.5100002,   13.4615383,           0.
     20,   29.5100002,   15.3846149,           0.
** ... 1394 like lines cut
*Element, type=S4R
  1,   1,  13, 275,  64
  2,  13,  14, 276, 275
  3,  14,  15, 277, 276
  4,  15,  16, 278, 277
  5,  16,  17, 279, 278
  6,  17,  18, 280, 279
  7,  18,  19, 281, 280
  8,  19,  20, 282, 281
  9,  20,  21, 283, 282
 10,  21,  22, 284, 283
 11,  22,  23, 285, 284
 12,  23,  24, 286, 285
 13,  24,   2,  25, 286
 14,  64, 275, 287,  63
 15, 275, 276, 288, 287
 16, 276, 277, 289, 288
 17, 277, 278, 290, 289
 18, 278, 279, 291, 290
 19, 279, 280, 292, 291
 20, 280, 281, 293, 292
** ... 1280 like lines cut
** Region: (CompositeLayup-1-1: Generated From Layup), (Controls:EC-1)
*Elset, elset=CompositeLayup-1-1, generate
    1,  1300,     1
** Section: CompositeLayup-1-1
*Shell Section, elset=CompositeLayup-1-1, composite, controls=EC-1, layup=CompositeLayup-1
0.125, 1, Material-1, <theta1>, Ply-1
0.125, 1, Material-1, <theta2>, Ply-2
0.125, 1, Material-1, <theta3>, Ply-3
0.125, 1, Material-1, <theta4>, Ply-4
0.125, 1, Material-1, <theta4>, Ply-5
0.125, 1, Material-1, <theta3>, Ply-6
0.125, 1, Material-1, <theta2>, Ply-7
0.125, 1, Material-1, <theta1>, Ply-8
*End Part
**  
**
** ASSEMBLY
**
*Assembly, name=Assembly
**  
*Instance, name=Part-1-1, part=Part-1
*End Instance
**  
*Node
      1,         200.,         12.5,           0.
*Node
      2,           0.,         12.5,           0.
*Nset, nset=Set-1, instance=Part-1-1
  3,  4, 39, 40, 41, 42, 43, 44, 45, 46, 47, 48, 49, 50
*Elset, elset=Set-1, instance=Part-1-1, generate
 183,  195,    1
*Nset, nset=Set-2, instance=Part-1-1
   9,  10, 141, 142, 143, 144, 145, 146, 147, 148, 149, 150, 151, 152
*Elset, elset=Set-2, instance=Part-1-1, generate
 638,  650,    1
*Nset, nset=Set-7
 2,
*Nset, nset=Set-8
 1,
*Nset, nset=m_Set-3
 1,
*Nset, nset=m_Set-5
 2,
*Nset, nset=s_Set-3, instance=Part-1-1
   7,   8,   9,  10, 115, 116, 117, 118, 119, 120, 121, 122, 123, 124, 125, 126
 127, 128, 129, 130, 131, 132, 133, 134, 135, 136, 137, 138, 139, 140, 141, 142
 143, 144, 145, 146, 147, 148, 149, 150, 151, 152, 153, 154, 155, 156, 157, 158
 159, 160, 161, 162, 163, 164, 165, 166, 671, 672, 673, 674, 675, 676, 677, 678
 679, 680, 681, 682, 683, 684, 685, 686, 687, 688, 689, 690, 691, 692, 693, 694
 695, 696, 697, 698, 699, 700, 701, 702, 703, 704, 705, 706, 707, 708, 709, 710
 711, 712, 713, 714, 715, 716, 717, 718, 719, 720, 721, 722, 723, 724, 725, 726
 727, 728, 729, 730, 731, 732, 733, 734, 735, 736, 737, 738, 739, 740, 741, 742
 743, 744, 745, 746, 747, 748, 749, 750, 751, 752, 753, 754, 755, 756, 757, 758
 759, 760, 761, 762, 763, 764, 765, 766, 767, 768, 769, 770, 771, 772, 773, 774
 775, 776, 777, 778, 779, 780, 781, 782, 783, 784, 785, 786, 787, 788, 789, 790
 791, 792, 793, 794, 795, 796, 797, 798, 799, 800, 801, 802, 803, 804, 805, 806
 807, 808, 809, 810, 811, 812, 813, 814, 815, 816, 817, 818, 819, 820, 821, 822
 823, 824, 825, 826, 827, 828, 829, 830, 831, 832, 833, 834, 835, 836, 837, 838
*Elset, elset=s_Set-3, instance=Part-1-1, generate
 456,  650,    1
*Nset, nset=s_Set-5, instance=Part-1-1
   1,   2,   3,   4,  13,  14,  15,  16,  17,  18,  19,  20,  21,  22,  23,  24
  25,  26,  27,  28,  29,  30,  31,  32,  33,  34,  35,  36,  37,  38,  39,  40
  41,  42,  43,  44,  45,  46,  47,  48,  49,  50,  51,  52,  53,  54,  55,  56
  57,  58,  59,  60,  61,  62,  63,  64, 275, 276, 277, 278, 279, 280, 281, 282
 283, 284, 285, 286, 287, 288, 289, 290, 291, 292, 293, 294, 295, 296, 297, 298
 299, 300, 301, 302, 303, 304, 305, 306, 307, 308, 309, 310, 311, 312, 313, 314
 315, 316, 317, 318, 319, 320, 321, 322, 323, 324, 325, 326, 327, 328, 329, 330
 331, 332, 333, 334, 335, 336, 337, 338, 339, 340, 341, 342, 343, 344, 345, 346
 347, 348, 349, 350, 351, 352, 353, 354, 355, 356, 357, 358, 359, 360, 361, 362
 363, 364, 365, 366, 367, 368, 369, 370, 371, 372, 373, 374, 375, 376, 377, 378
 379, 380, 381, 382, 383, 384, 385, 386, 387, 388, 389, 390, 391, 392, 393, 394
 395, 396, 397, 398, 399, 400, 401, 402, 403, 404, 405, 406, 407, 408, 409, 410
 411, 412, 413, 414, 415, 416, 417, 418, 419, 420, 421, 422, 423, 424, 425, 426
 427, 428, 429, 430, 431, 432, 433, 434, 435, 436, 437, 438, 439, 440, 441, 442
*Elset, elset=s_Set-5, instance=Part-1-1, generate
   1,  195,    1
*Surface, type=NODE, name=s_Set-3_CNS_, internal
s_Set-3, 1.
*Surface, type=NODE, name=s_Set-5_CNS_, internal
s_Set-5, 1.
** Constraint: Constraint-1
*Coupling, constraint name=Constraint-1, ref node=m_Set-3, surface=s_Set-3_CNS_
*Kinematic
** Constraint: Constraint-2
*Coupling, constraint name=Constraint-2, ref node=m_Set-5, surface=s_Set-5_CNS_
*Kinematic
*End Assembly
** 
** ELEMENT CONTROLS
** 
*Section Controls, name=EC-1, hourglass=ENHANCED
1., 1., 1.
** 
** MATERIALS
** 
*Material, name=Material-1
*Damage Initiation, criterion=HASHIN
2050.,1200., 62.,190.,81.,81.
*Damage Evolution, type=ENERGY
45.,45., 0.6, 0.6
*Damage Stabilization
0.003,0.003,0.003,0.003
*Elastic, type=ENGINEERING CONSTANTS
170000.,9000.,9000., 0.34, 0.34, 0.34, 4800., 4800.
 4500.,
** 
** BOUNDARY CONDITIONS
** 
** Name: BC-1 Type: Symmetry/Antisymmetry/Encastre
*Boundary
Set-7, ENCASTRE
** Name: BC-2 Type: Displacement/Rotation
*Boundary
Set-8, 1, 1
Set-8, 2, 2
Set-8, 3, 3
Set-8, 4, 4
Set-8, 5, 5
Set-8, 6, 6
** ----------------------------------------------------------------
** 
** STEP: Step-1
** 
*Step, name=Step-1, nlgeom=YES, inc=250
*Static, stabilize, factor=0.0002, allsdtol=0, continue=NO
0.005, 1., 2e-07, 0.02
** 
** BOUNDARY CONDITIONS
** 
** Name: BC-2 Type: Displacement/Rotation
*Boundary
Set-8, 1, 1, 3.
Set-8, 3, 3
Set-8, 4, 4
Set-8, 5, 5
Set-8, 6, 6
** 
** OUTPUT REQUESTS
** 
*Restart, write, frequency=0
** 
** FIELD OUTPUT: F-Output-2
** 
*Output, field
*Node Output
RF, 
** 
** FIELD OUTPUT: F-Output-1
** 
*Element Output, elset=Part-1-1.CompositeLayup-1-1, directions=YES
1, 2, 3, 4, 5, 6, 7, 8
DAMAGEC, DAMAGEFC, DAMAGEFT, DAMAGEMC, DAMAGEMT, DAMAGESHR, DAMAGET, HSNFCCRT, HSNFTCRT, HSNMCCRT, HSNMTCRT, LE, PE, PEEQ, PEMAG, S
** 
** HISTORY OUTPUT: H-Output-1
** 
*Output, history, variable=PRESELECT
*End Step
